@<TRIPOS>MOLECULE
Cpptraj Generated mol2 file.
  351   324     1     0     0
SMALL
USER_CHARGES


@<TRIPOS>ATOM
      1 C1         -3.6020   -4.4730   -4.7760 c3         1 MOL      0.154600
      2 H1         -2.9860   -3.6470   -5.1640 h1         1 MOL      0.037450
      3 H2         -3.5570   -4.4230   -3.6750 h1         1 MOL      0.037450
      4 C2         -5.0420   -4.2970   -5.2390 c3         1 MOL     -0.120400
      5 H3         -5.0630   -4.3580   -6.3360 hc         1 MOL      0.057200
      6 H4         -5.3900   -3.2950   -4.9640 hc         1 MOL      0.057200
      7 C3         -6.0000   -5.3360   -4.6510 c3         1 MOL      0.154600
      8 H5         -5.6530   -6.3470   -4.9020 h1         1 MOL      0.037450
      9 H6         -6.0080   -5.2570   -3.5570 h1         1 MOL      0.037450
     10 O1         -3.1330   -5.7320   -5.2510 oh         1 MOL     -0.664500
     11 H7         -2.2390   -5.8680   -4.9130 ho         1 MOL      0.438500
     12 O2         -7.3480   -5.1260   -5.0600 oh         1 MOL     -0.664500
     13 H8         -7.3920   -5.2990   -6.0090 ho         1 MOL      0.438500
     14 C1         -3.6020   -4.4730    0.2240 c3         1 MOL      0.154600
     15 H1         -2.9860   -3.6470   -0.1640 h1         1 MOL      0.037450
     16 H2         -3.5570   -4.4230    1.3250 h1         1 MOL      0.037450
     17 C2         -5.0420   -4.2970   -0.2390 c3         1 MOL     -0.120400
     18 H3         -5.0630   -4.3580   -1.3360 hc         1 MOL      0.057200
     19 H4         -5.3900   -3.2950    0.0360 hc         1 MOL      0.057200
     20 C3         -6.0000   -5.3360    0.3490 c3         1 MOL      0.154600
     21 H5         -5.6530   -6.3470    0.0980 h1         1 MOL      0.037450
     22 H6         -6.0080   -5.2570    1.4430 h1         1 MOL      0.037450
     23 O1         -3.1330   -5.7320   -0.2510 oh         1 MOL     -0.664500
     24 H7         -2.2390   -5.8680    0.0870 ho         1 MOL      0.438500
     25 O2         -7.3480   -5.1260   -0.0600 oh         1 MOL     -0.664500
     26 H8         -7.3920   -5.2990   -1.0090 ho         1 MOL      0.438500
     27 C1         -3.6020   -4.4730    5.2240 c3         1 MOL      0.154600
     28 H1         -2.9860   -3.6470    4.8360 h1         1 MOL      0.037450
     29 H2         -3.5570   -4.4230    6.3250 h1         1 MOL      0.037450
     30 C2         -5.0420   -4.2970    4.7610 c3         1 MOL     -0.120400
     31 H3         -5.0630   -4.3580    3.6640 hc         1 MOL      0.057200
     32 H4         -5.3900   -3.2950    5.0360 hc         1 MOL      0.057200
     33 C3         -6.0000   -5.3360    5.3490 c3         1 MOL      0.154600
     34 H5         -5.6530   -6.3470    5.0980 h1         1 MOL      0.037450
     35 H6         -6.0080   -5.2570    6.4430 h1         1 MOL      0.037450
     36 O1         -3.1330   -5.7320    4.7490 oh         1 MOL     -0.664500
     37 H7         -2.2390   -5.8680    5.0870 ho         1 MOL      0.438500
     38 O2         -7.3480   -5.1260    4.9400 oh         1 MOL     -0.664500
     39 H8         -7.3920   -5.2990    3.9910 ho         1 MOL      0.438500
     40 C1         -3.6020    0.5270   -4.7760 c3         1 MOL      0.154600
     41 H1         -2.9860    1.3530   -5.1640 h1         1 MOL      0.037450
     42 H2         -3.5570    0.5770   -3.6750 h1         1 MOL      0.037450
     43 C2         -5.0420    0.7030   -5.2390 c3         1 MOL     -0.120400
     44 H3         -5.0630    0.6420   -6.3360 hc         1 MOL      0.057200
     45 H4         -5.3900    1.7050   -4.9640 hc         1 MOL      0.057200
     46 C3         -6.0000   -0.3360   -4.6510 c3         1 MOL      0.154600
     47 H5         -5.6530   -1.3470   -4.9020 h1         1 MOL      0.037450
     48 H6         -6.0080   -0.2570   -3.5570 h1         1 MOL      0.037450
     49 O1         -3.1330   -0.7320   -5.2510 oh         1 MOL     -0.664500
     50 H7         -2.2390   -0.8680   -4.9130 ho         1 MOL      0.438500
     51 O2         -7.3480   -0.1260   -5.0600 oh         1 MOL     -0.664500
     52 H8         -7.3920   -0.2990   -6.0090 ho         1 MOL      0.438500
     53 C1         -3.6020    0.5270    0.2240 c3         1 MOL      0.154600
     54 H1         -2.9860    1.3530   -0.1640 h1         1 MOL      0.037450
     55 H2         -3.5570    0.5770    1.3250 h1         1 MOL      0.037450
     56 C2         -5.0420    0.7030   -0.2390 c3         1 MOL     -0.120400
     57 H3         -5.0630    0.6420   -1.3360 hc         1 MOL      0.057200
     58 H4         -5.3900    1.7050    0.0360 hc         1 MOL      0.057200
     59 C3         -6.0000   -0.3360    0.3490 c3         1 MOL      0.154600
     60 H5         -5.6530   -1.3470    0.0980 h1         1 MOL      0.037450
     61 H6         -6.0080   -0.2570    1.4430 h1         1 MOL      0.037450
     62 O1         -3.1330   -0.7320   -0.2510 oh         1 MOL     -0.664500
     63 H7         -2.2390   -0.8680    0.0870 ho         1 MOL      0.438500
     64 O2         -7.3480   -0.1260   -0.0600 oh         1 MOL     -0.664500
     65 H8         -7.3920   -0.2990   -1.0090 ho         1 MOL      0.438500
     66 C1         -3.6020    0.5270    5.2240 c3         1 MOL      0.154600
     67 H1         -2.9860    1.3530    4.8360 h1         1 MOL      0.037450
     68 H2         -3.5570    0.5770    6.3250 h1         1 MOL      0.037450
     69 C2         -5.0420    0.7030    4.7610 c3         1 MOL     -0.120400
     70 H3         -5.0630    0.6420    3.6640 hc         1 MOL      0.057200
     71 H4         -5.3900    1.7050    5.0360 hc         1 MOL      0.057200
     72 C3         -6.0000   -0.3360    5.3490 c3         1 MOL      0.154600
     73 H5         -5.6530   -1.3470    5.0980 h1         1 MOL      0.037450
     74 H6         -6.0080   -0.2570    6.4430 h1         1 MOL      0.037450
     75 O1         -3.1330   -0.7320    4.7490 oh         1 MOL     -0.664500
     76 H7         -2.2390   -0.8680    5.0870 ho         1 MOL      0.438500
     77 O2         -7.3480   -0.1260    4.9400 oh         1 MOL     -0.664500
     78 H8         -7.3920   -0.2990    3.9910 ho         1 MOL      0.438500
     79 C1         -3.6020    5.5270   -4.7760 c3         1 MOL      0.154600
     80 H1         -2.9860    6.3530   -5.1640 h1         1 MOL      0.037450
     81 H2         -3.5570    5.5770   -3.6750 h1         1 MOL      0.037450
     82 C2         -5.0420    5.7030   -5.2390 c3         1 MOL     -0.120400
     83 H3         -5.0630    5.6420   -6.3360 hc         1 MOL      0.057200
     84 H4         -5.3900    6.7050   -4.9640 hc         1 MOL      0.057200
     85 C3         -6.0000    4.6640   -4.6510 c3         1 MOL      0.154600
     86 H5         -5.6530    3.6530   -4.9020 h1         1 MOL      0.037450
     87 H6         -6.0080    4.7430   -3.5570 h1         1 MOL      0.037450
     88 O1         -3.1330    4.2680   -5.2510 oh         1 MOL     -0.664500
     89 H7         -2.2390    4.1320   -4.9130 ho         1 MOL      0.438500
     90 O2         -7.3480    4.8740   -5.0600 oh         1 MOL     -0.664500
     91 H8         -7.3920    4.7010   -6.0090 ho         1 MOL      0.438500
     92 C1         -3.6020    5.5270    0.2240 c3         1 MOL      0.154600
     93 H1         -2.9860    6.3530   -0.1640 h1         1 MOL      0.037450
     94 H2         -3.5570    5.5770    1.3250 h1         1 MOL      0.037450
     95 C2         -5.0420    5.7030   -0.2390 c3         1 MOL     -0.120400
     96 H3         -5.0630    5.6420   -1.3360 hc         1 MOL      0.057200
     97 H4         -5.3900    6.7050    0.0360 hc         1 MOL      0.057200
     98 C3         -6.0000    4.6640    0.3490 c3         1 MOL      0.154600
     99 H5         -5.6530    3.6530    0.0980 h1         1 MOL      0.037450
    100 H6         -6.0080    4.7430    1.4430 h1         1 MOL      0.037450
    101 O1         -3.1330    4.2680   -0.2510 oh         1 MOL     -0.664500
    102 H7         -2.2390    4.1320    0.0870 ho         1 MOL      0.438500
    103 O2         -7.3480    4.8740   -0.0600 oh         1 MOL     -0.664500
    104 H8         -7.3920    4.7010   -1.0090 ho         1 MOL      0.438500
    105 C1         -3.6020    5.5270    5.2240 c3         1 MOL      0.154600
    106 H1         -2.9860    6.3530    4.8360 h1         1 MOL      0.037450
    107 H2         -3.5570    5.5770    6.3250 h1         1 MOL      0.037450
    108 C2         -5.0420    5.7030    4.7610 c3         1 MOL     -0.120400
    109 H3         -5.0630    5.6420    3.6640 hc         1 MOL      0.057200
    110 H4         -5.3900    6.7050    5.0360 hc         1 MOL      0.057200
    111 C3         -6.0000    4.6640    5.3490 c3         1 MOL      0.154600
    112 H5         -5.6530    3.6530    5.0980 h1         1 MOL      0.037450
    113 H6         -6.0080    4.7430    6.4430 h1         1 MOL      0.037450
    114 O1         -3.1330    4.2680    4.7490 oh         1 MOL     -0.664500
    115 H7         -2.2390    4.1320    5.0870 ho         1 MOL      0.438500
    116 O2         -7.3480    4.8740    4.9400 oh         1 MOL     -0.664500
    117 H8         -7.3920    4.7010    3.9910 ho         1 MOL      0.438500
    118 C1          1.3980   -4.4730   -4.7760 c3         1 MOL      0.154600
    119 H1          2.0140   -3.6470   -5.1640 h1         1 MOL      0.037450
    120 H2          1.4430   -4.4230   -3.6750 h1         1 MOL      0.037450
    121 C2         -0.0420   -4.2970   -5.2390 c3         1 MOL     -0.120400
    122 H3         -0.0630   -4.3580   -6.3360 hc         1 MOL      0.057200
    123 H4         -0.3900   -3.2950   -4.9640 hc         1 MOL      0.057200
    124 C3         -1.0000   -5.3360   -4.6510 c3         1 MOL      0.154600
    125 H5         -0.6530   -6.3470   -4.9020 h1         1 MOL      0.037450
    126 H6         -1.0080   -5.2570   -3.5570 h1         1 MOL      0.037450
    127 O1          1.8670   -5.7320   -5.2510 oh         1 MOL     -0.664500
    128 H7          2.7610   -5.8680   -4.9130 ho         1 MOL      0.438500
    129 O2         -2.3480   -5.1260   -5.0600 oh         1 MOL     -0.664500
    130 H8         -2.3920   -5.2990   -6.0090 ho         1 MOL      0.438500
    131 C1          1.3980   -4.4730    0.2240 c3         1 MOL      0.154600
    132 H1          2.0140   -3.6470   -0.1640 h1         1 MOL      0.037450
    133 H2          1.4430   -4.4230    1.3250 h1         1 MOL      0.037450
    134 C2         -0.0420   -4.2970   -0.2390 c3         1 MOL     -0.120400
    135 H3         -0.0630   -4.3580   -1.3360 hc         1 MOL      0.057200
    136 H4         -0.3900   -3.2950    0.0360 hc         1 MOL      0.057200
    137 C3         -1.0000   -5.3360    0.3490 c3         1 MOL      0.154600
    138 H5         -0.6530   -6.3470    0.0980 h1         1 MOL      0.037450
    139 H6         -1.0080   -5.2570    1.4430 h1         1 MOL      0.037450
    140 O1          1.8670   -5.7320   -0.2510 oh         1 MOL     -0.664500
    141 H7          2.7610   -5.8680    0.0870 ho         1 MOL      0.438500
    142 O2         -2.3480   -5.1260   -0.0600 oh         1 MOL     -0.664500
    143 H8         -2.3920   -5.2990   -1.0090 ho         1 MOL      0.438500
    144 C1          1.3980   -4.4730    5.2240 c3         1 MOL      0.154600
    145 H1          2.0140   -3.6470    4.8360 h1         1 MOL      0.037450
    146 H2          1.4430   -4.4230    6.3250 h1         1 MOL      0.037450
    147 C2         -0.0420   -4.2970    4.7610 c3         1 MOL     -0.120400
    148 H3         -0.0630   -4.3580    3.6640 hc         1 MOL      0.057200
    149 H4         -0.3900   -3.2950    5.0360 hc         1 MOL      0.057200
    150 C3         -1.0000   -5.3360    5.3490 c3         1 MOL      0.154600
    151 H5         -0.6530   -6.3470    5.0980 h1         1 MOL      0.037450
    152 H6         -1.0080   -5.2570    6.4430 h1         1 MOL      0.037450
    153 O1          1.8670   -5.7320    4.7490 oh         1 MOL     -0.664500
    154 H7          2.7610   -5.8680    5.0870 ho         1 MOL      0.438500
    155 O2         -2.3480   -5.1260    4.9400 oh         1 MOL     -0.664500
    156 H8         -2.3920   -5.2990    3.9910 ho         1 MOL      0.438500
    157 C1          1.3980    0.5270   -4.7760 c3         1 MOL      0.154600
    158 H1          2.0140    1.3530   -5.1640 h1         1 MOL      0.037450
    159 H2          1.4430    0.5770   -3.6750 h1         1 MOL      0.037450
    160 C2         -0.0420    0.7030   -5.2390 c3         1 MOL     -0.120400
    161 H3         -0.0630    0.6420   -6.3360 hc         1 MOL      0.057200
    162 H4         -0.3900    1.7050   -4.9640 hc         1 MOL      0.057200
    163 C3         -1.0000   -0.3360   -4.6510 c3         1 MOL      0.154600
    164 H5         -0.6530   -1.3470   -4.9020 h1         1 MOL      0.037450
    165 H6         -1.0080   -0.2570   -3.5570 h1         1 MOL      0.037450
    166 O1          1.8670   -0.7320   -5.2510 oh         1 MOL     -0.664500
    167 H7          2.7610   -0.8680   -4.9130 ho         1 MOL      0.438500
    168 O2         -2.3480   -0.1260   -5.0600 oh         1 MOL     -0.664500
    169 H8         -2.3920   -0.2990   -6.0090 ho         1 MOL      0.438500
    170 C1          1.3980    0.5270    0.2240 c3         1 MOL      0.154600
    171 H1          2.0140    1.3530   -0.1640 h1         1 MOL      0.037450
    172 H2          1.4430    0.5770    1.3250 h1         1 MOL      0.037450
    173 C2         -0.0420    0.7030   -0.2390 c3         1 MOL     -0.120400
    174 H3         -0.0630    0.6420   -1.3360 hc         1 MOL      0.057200
    175 H4         -0.3900    1.7050    0.0360 hc         1 MOL      0.057200
    176 C3         -1.0000   -0.3360    0.3490 c3         1 MOL      0.154600
    177 H5         -0.6530   -1.3470    0.0980 h1         1 MOL      0.037450
    178 H6         -1.0080   -0.2570    1.4430 h1         1 MOL      0.037450
    179 O1          1.8670   -0.7320   -0.2510 oh         1 MOL     -0.664500
    180 H7          2.7610   -0.8680    0.0870 ho         1 MOL      0.438500
    181 O2         -2.3480   -0.1260   -0.0600 oh         1 MOL     -0.664500
    182 H8         -2.3920   -0.2990   -1.0090 ho         1 MOL      0.438500
    183 C1          1.3980    0.5270    5.2240 c3         1 MOL      0.154600
    184 H1          2.0140    1.3530    4.8360 h1         1 MOL      0.037450
    185 H2          1.4430    0.5770    6.3250 h1         1 MOL      0.037450
    186 C2         -0.0420    0.7030    4.7610 c3         1 MOL     -0.120400
    187 H3         -0.0630    0.6420    3.6640 hc         1 MOL      0.057200
    188 H4         -0.3900    1.7050    5.0360 hc         1 MOL      0.057200
    189 C3         -1.0000   -0.3360    5.3490 c3         1 MOL      0.154600
    190 H5         -0.6530   -1.3470    5.0980 h1         1 MOL      0.037450
    191 H6         -1.0080   -0.2570    6.4430 h1         1 MOL      0.037450
    192 O1          1.8670   -0.7320    4.7490 oh         1 MOL     -0.664500
    193 H7          2.7610   -0.8680    5.0870 ho         1 MOL      0.438500
    194 O2         -2.3480   -0.1260    4.9400 oh         1 MOL     -0.664500
    195 H8         -2.3920   -0.2990    3.9910 ho         1 MOL      0.438500
    196 C1          1.3980    5.5270   -4.7760 c3         1 MOL      0.154600
    197 H1          2.0140    6.3530   -5.1640 h1         1 MOL      0.037450
    198 H2          1.4430    5.5770   -3.6750 h1         1 MOL      0.037450
    199 C2         -0.0420    5.7030   -5.2390 c3         1 MOL     -0.120400
    200 H3         -0.0630    5.6420   -6.3360 hc         1 MOL      0.057200
    201 H4         -0.3900    6.7050   -4.9640 hc         1 MOL      0.057200
    202 C3         -1.0000    4.6640   -4.6510 c3         1 MOL      0.154600
    203 H5         -0.6530    3.6530   -4.9020 h1         1 MOL      0.037450
    204 H6         -1.0080    4.7430   -3.5570 h1         1 MOL      0.037450
    205 O1          1.8670    4.2680   -5.2510 oh         1 MOL     -0.664500
    206 H7          2.7610    4.1320   -4.9130 ho         1 MOL      0.438500
    207 O2         -2.3480    4.8740   -5.0600 oh         1 MOL     -0.664500
    208 H8         -2.3920    4.7010   -6.0090 ho         1 MOL      0.438500
    209 C1          1.3980    5.5270    0.2240 c3         1 MOL      0.154600
    210 H1          2.0140    6.3530   -0.1640 h1         1 MOL      0.037450
    211 H2          1.4430    5.5770    1.3250 h1         1 MOL      0.037450
    212 C2         -0.0420    5.7030   -0.2390 c3         1 MOL     -0.120400
    213 H3         -0.0630    5.6420   -1.3360 hc         1 MOL      0.057200
    214 H4         -0.3900    6.7050    0.0360 hc         1 MOL      0.057200
    215 C3         -1.0000    4.6640    0.3490 c3         1 MOL      0.154600
    216 H5         -0.6530    3.6530    0.0980 h1         1 MOL      0.037450
    217 H6         -1.0080    4.7430    1.4430 h1         1 MOL      0.037450
    218 O1          1.8670    4.2680   -0.2510 oh         1 MOL     -0.664500
    219 H7          2.7610    4.1320    0.0870 ho         1 MOL      0.438500
    220 O2         -2.3480    4.8740   -0.0600 oh         1 MOL     -0.664500
    221 H8         -2.3920    4.7010   -1.0090 ho         1 MOL      0.438500
    222 C1          1.3980    5.5270    5.2240 c3         1 MOL      0.154600
    223 H1          2.0140    6.3530    4.8360 h1         1 MOL      0.037450
    224 H2          1.4430    5.5770    6.3250 h1         1 MOL      0.037450
    225 C2         -0.0420    5.7030    4.7610 c3         1 MOL     -0.120400
    226 H3         -0.0630    5.6420    3.6640 hc         1 MOL      0.057200
    227 H4         -0.3900    6.7050    5.0360 hc         1 MOL      0.057200
    228 C3         -1.0000    4.6640    5.3490 c3         1 MOL      0.154600
    229 H5         -0.6530    3.6530    5.0980 h1         1 MOL      0.037450
    230 H6         -1.0080    4.7430    6.4430 h1         1 MOL      0.037450
    231 O1          1.8670    4.2680    4.7490 oh         1 MOL     -0.664500
    232 H7          2.7610    4.1320    5.0870 ho         1 MOL      0.438500
    233 O2         -2.3480    4.8740    4.9400 oh         1 MOL     -0.664500
    234 H8         -2.3920    4.7010    3.9910 ho         1 MOL      0.438500
    235 C1          6.3980   -4.4730   -4.7760 c3         1 MOL      0.154600
    236 H1          7.0140   -3.6470   -5.1640 h1         1 MOL      0.037450
    237 H2          6.4430   -4.4230   -3.6750 h1         1 MOL      0.037450
    238 C2          4.9580   -4.2970   -5.2390 c3         1 MOL     -0.120400
    239 H3          4.9370   -4.3580   -6.3360 hc         1 MOL      0.057200
    240 H4          4.6100   -3.2950   -4.9640 hc         1 MOL      0.057200
    241 C3          4.0000   -5.3360   -4.6510 c3         1 MOL      0.154600
    242 H5          4.3470   -6.3470   -4.9020 h1         1 MOL      0.037450
    243 H6          3.9920   -5.2570   -3.5570 h1         1 MOL      0.037450
    244 O1          6.8670   -5.7320   -5.2510 oh         1 MOL     -0.664500
    245 H7          7.7610   -5.8680   -4.9130 ho         1 MOL      0.438500
    246 O2          2.6520   -5.1260   -5.0600 oh         1 MOL     -0.664500
    247 H8          2.6080   -5.2990   -6.0090 ho         1 MOL      0.438500
    248 C1          6.3980   -4.4730    0.2240 c3         1 MOL      0.154600
    249 H1          7.0140   -3.6470   -0.1640 h1         1 MOL      0.037450
    250 H2          6.4430   -4.4230    1.3250 h1         1 MOL      0.037450
    251 C2          4.9580   -4.2970   -0.2390 c3         1 MOL     -0.120400
    252 H3          4.9370   -4.3580   -1.3360 hc         1 MOL      0.057200
    253 H4          4.6100   -3.2950    0.0360 hc         1 MOL      0.057200
    254 C3          4.0000   -5.3360    0.3490 c3         1 MOL      0.154600
    255 H5          4.3470   -6.3470    0.0980 h1         1 MOL      0.037450
    256 H6          3.9920   -5.2570    1.4430 h1         1 MOL      0.037450
    257 O1          6.8670   -5.7320   -0.2510 oh         1 MOL     -0.664500
    258 H7          7.7610   -5.8680    0.0870 ho         1 MOL      0.438500
    259 O2          2.6520   -5.1260   -0.0600 oh         1 MOL     -0.664500
    260 H8          2.6080   -5.2990   -1.0090 ho         1 MOL      0.438500
    261 C1          6.3980   -4.4730    5.2240 c3         1 MOL      0.154600
    262 H1          7.0140   -3.6470    4.8360 h1         1 MOL      0.037450
    263 H2          6.4430   -4.4230    6.3250 h1         1 MOL      0.037450
    264 C2          4.9580   -4.2970    4.7610 c3         1 MOL     -0.120400
    265 H3          4.9370   -4.3580    3.6640 hc         1 MOL      0.057200
    266 H4          4.6100   -3.2950    5.0360 hc         1 MOL      0.057200
    267 C3          4.0000   -5.3360    5.3490 c3         1 MOL      0.154600
    268 H5          4.3470   -6.3470    5.0980 h1         1 MOL      0.037450
    269 H6          3.9920   -5.2570    6.4430 h1         1 MOL      0.037450
    270 O1          6.8670   -5.7320    4.7490 oh         1 MOL     -0.664500
    271 H7          7.7610   -5.8680    5.0870 ho         1 MOL      0.438500
    272 O2          2.6520   -5.1260    4.9400 oh         1 MOL     -0.664500
    273 H8          2.6080   -5.2990    3.9910 ho         1 MOL      0.438500
    274 C1          6.3980    0.5270   -4.7760 c3         1 MOL      0.154600
    275 H1          7.0140    1.3530   -5.1640 h1         1 MOL      0.037450
    276 H2          6.4430    0.5770   -3.6750 h1         1 MOL      0.037450
    277 C2          4.9580    0.7030   -5.2390 c3         1 MOL     -0.120400
    278 H3          4.9370    0.6420   -6.3360 hc         1 MOL      0.057200
    279 H4          4.6100    1.7050   -4.9640 hc         1 MOL      0.057200
    280 C3          4.0000   -0.3360   -4.6510 c3         1 MOL      0.154600
    281 H5          4.3470   -1.3470   -4.9020 h1         1 MOL      0.037450
    282 H6          3.9920   -0.2570   -3.5570 h1         1 MOL      0.037450
    283 O1          6.8670   -0.7320   -5.2510 oh         1 MOL     -0.664500
    284 H7          7.7610   -0.8680   -4.9130 ho         1 MOL      0.438500
    285 O2          2.6520   -0.1260   -5.0600 oh         1 MOL     -0.664500
    286 H8          2.6080   -0.2990   -6.0090 ho         1 MOL      0.438500
    287 C1          6.3980    0.5270    0.2240 c3         1 MOL      0.154600
    288 H1          7.0140    1.3530   -0.1640 h1         1 MOL      0.037450
    289 H2          6.4430    0.5770    1.3250 h1         1 MOL      0.037450
    290 C2          4.9580    0.7030   -0.2390 c3         1 MOL     -0.120400
    291 H3          4.9370    0.6420   -1.3360 hc         1 MOL      0.057200
    292 H4          4.6100    1.7050    0.0360 hc         1 MOL      0.057200
    293 C3          4.0000   -0.3360    0.3490 c3         1 MOL      0.154600
    294 H5          4.3470   -1.3470    0.0980 h1         1 MOL      0.037450
    295 H6          3.9920   -0.2570    1.4430 h1         1 MOL      0.037450
    296 O1          6.8670   -0.7320   -0.2510 oh         1 MOL     -0.664500
    297 H7          7.7610   -0.8680    0.0870 ho         1 MOL      0.438500
    298 O2          2.6520   -0.1260   -0.0600 oh         1 MOL     -0.664500
    299 H8          2.6080   -0.2990   -1.0090 ho         1 MOL      0.438500
    300 C1          6.3980    0.5270    5.2240 c3         1 MOL      0.154600
    301 H1          7.0140    1.3530    4.8360 h1         1 MOL      0.037450
    302 H2          6.4430    0.5770    6.3250 h1         1 MOL      0.037450
    303 C2          4.9580    0.7030    4.7610 c3         1 MOL     -0.120400
    304 H3          4.9370    0.6420    3.6640 hc         1 MOL      0.057200
    305 H4          4.6100    1.7050    5.0360 hc         1 MOL      0.057200
    306 C3          4.0000   -0.3360    5.3490 c3         1 MOL      0.154600
    307 H5          4.3470   -1.3470    5.0980 h1         1 MOL      0.037450
    308 H6          3.9920   -0.2570    6.4430 h1         1 MOL      0.037450
    309 O1          6.8670   -0.7320    4.7490 oh         1 MOL     -0.664500
    310 H7          7.7610   -0.8680    5.0870 ho         1 MOL      0.438500
    311 O2          2.6520   -0.1260    4.9400 oh         1 MOL     -0.664500
    312 H8          2.6080   -0.2990    3.9910 ho         1 MOL      0.438500
    313 C1          6.3980    5.5270   -4.7760 c3         1 MOL      0.154600
    314 H1          7.0140    6.3530   -5.1640 h1         1 MOL      0.037450
    315 H2          6.4430    5.5770   -3.6750 h1         1 MOL      0.037450
    316 C2          4.9580    5.7030   -5.2390 c3         1 MOL     -0.120400
    317 H3          4.9370    5.6420   -6.3360 hc         1 MOL      0.057200
    318 H4          4.6100    6.7050   -4.9640 hc         1 MOL      0.057200
    319 C3          4.0000    4.6640   -4.6510 c3         1 MOL      0.154600
    320 H5          4.3470    3.6530   -4.9020 h1         1 MOL      0.037450
    321 H6          3.9920    4.7430   -3.5570 h1         1 MOL      0.037450
    322 O1          6.8670    4.2680   -5.2510 oh         1 MOL     -0.664500
    323 H7          7.7610    4.1320   -4.9130 ho         1 MOL      0.438500
    324 O2          2.6520    4.8740   -5.0600 oh         1 MOL     -0.664500
    325 H8          2.6080    4.7010   -6.0090 ho         1 MOL      0.438500
    326 C1          6.3980    5.5270    0.2240 c3         1 MOL      0.154600
    327 H1          7.0140    6.3530   -0.1640 h1         1 MOL      0.037450
    328 H2          6.4430    5.5770    1.3250 h1         1 MOL      0.037450
    329 C2          4.9580    5.7030   -0.2390 c3         1 MOL     -0.120400
    330 H3          4.9370    5.6420   -1.3360 hc         1 MOL      0.057200
    331 H4          4.6100    6.7050    0.0360 hc         1 MOL      0.057200
    332 C3          4.0000    4.6640    0.3490 c3         1 MOL      0.154600
    333 H5          4.3470    3.6530    0.0980 h1         1 MOL      0.037450
    334 H6          3.9920    4.7430    1.4430 h1         1 MOL      0.037450
    335 O1          6.8670    4.2680   -0.2510 oh         1 MOL     -0.664500
    336 H7          7.7610    4.1320    0.0870 ho         1 MOL      0.438500
    337 O2          2.6520    4.8740   -0.0600 oh         1 MOL     -0.664500
    338 H8          2.6080    4.7010   -1.0090 ho         1 MOL      0.438500
    339 C1          6.3980    5.5270    5.2240 c3         1 MOL      0.154600
    340 H1          7.0140    6.3530    4.8360 h1         1 MOL      0.037450
    341 H2          6.4430    5.5770    6.3250 h1         1 MOL      0.037450
    342 C2          4.9580    5.7030    4.7610 c3         1 MOL     -0.120400
    343 H3          4.9370    5.6420    3.6640 hc         1 MOL      0.057200
    344 H4          4.6100    6.7050    5.0360 hc         1 MOL      0.057200
    345 C3          4.0000    4.6640    5.3490 c3         1 MOL      0.154600
    346 H5          4.3470    3.6530    5.0980 h1         1 MOL      0.037450
    347 H6          3.9920    4.7430    6.4430 h1         1 MOL      0.037450
    348 O1          6.8670    4.2680    4.7490 oh         1 MOL     -0.664500
    349 H7          7.7610    4.1320    5.0870 ho         1 MOL      0.438500
    350 O2          2.6520    4.8740    4.9400 oh         1 MOL     -0.664500
    351 H8          2.6080    4.7010    3.9910 ho         1 MOL      0.438500
@<TRIPOS>BOND
    1     1     4 1
    2     1    10 1
    3     4     7 1
    4     7    12 1
    5    14    17 1
    6    14    23 1
    7    17    20 1
    8    20    25 1
    9    27    30 1
   10    27    36 1
   11    30    33 1
   12    33    38 1
   13    40    43 1
   14    40    49 1
   15    43    46 1
   16    46    51 1
   17    53    56 1
   18    53    62 1
   19    56    59 1
   20    59    64 1
   21    66    69 1
   22    66    75 1
   23    69    72 1
   24    72    77 1
   25    79    82 1
   26    79    88 1
   27    82    85 1
   28    85    90 1
   29    92    95 1
   30    92   101 1
   31    95    98 1
   32    98   103 1
   33   105   108 1
   34   105   114 1
   35   108   111 1
   36   111   116 1
   37   118   121 1
   38   118   127 1
   39   121   124 1
   40   124   129 1
   41   131   134 1
   42   131   140 1
   43   134   137 1
   44   137   142 1
   45   144   147 1
   46   144   153 1
   47   147   150 1
   48   150   155 1
   49   157   160 1
   50   157   166 1
   51   160   163 1
   52   163   168 1
   53   170   173 1
   54   170   179 1
   55   173   176 1
   56   176   181 1
   57   183   186 1
   58   183   192 1
   59   186   189 1
   60   189   194 1
   61   196   199 1
   62   196   205 1
   63   199   202 1
   64   202   207 1
   65   209   212 1
   66   209   218 1
   67   212   215 1
   68   215   220 1
   69   222   225 1
   70   222   231 1
   71   225   228 1
   72   228   233 1
   73   235   238 1
   74   235   244 1
   75   238   241 1
   76   241   246 1
   77   248   251 1
   78   248   257 1
   79   251   254 1
   80   254   259 1
   81   261   264 1
   82   261   270 1
   83   264   267 1
   84   267   272 1
   85   274   277 1
   86   274   283 1
   87   277   280 1
   88   280   285 1
   89   287   290 1
   90   287   296 1
   91   290   293 1
   92   293   298 1
   93   300   303 1
   94   300   309 1
   95   303   306 1
   96   306   311 1
   97   313   316 1
   98   313   322 1
   99   316   319 1
  100   319   324 1
  101   326   329 1
  102   326   335 1
  103   329   332 1
  104   332   337 1
  105   339   342 1
  106   339   348 1
  107   342   345 1
  108   345   350 1
  109     1     2 1
  110     1     3 1
  111     4     5 1
  112     4     6 1
  113     7     8 1
  114     7     9 1
  115    10    11 1
  116    12    13 1
  117    14    15 1
  118    14    16 1
  119    17    18 1
  120    17    19 1
  121    20    21 1
  122    20    22 1
  123    23    24 1
  124    25    26 1
  125    27    28 1
  126    27    29 1
  127    30    31 1
  128    30    32 1
  129    33    34 1
  130    33    35 1
  131    36    37 1
  132    38    39 1
  133    40    41 1
  134    40    42 1
  135    43    44 1
  136    43    45 1
  137    46    47 1
  138    46    48 1
  139    49    50 1
  140    51    52 1
  141    53    54 1
  142    53    55 1
  143    56    57 1
  144    56    58 1
  145    59    60 1
  146    59    61 1
  147    62    63 1
  148    64    65 1
  149    66    67 1
  150    66    68 1
  151    69    70 1
  152    69    71 1
  153    72    73 1
  154    72    74 1
  155    75    76 1
  156    77    78 1
  157    79    80 1
  158    79    81 1
  159    82    83 1
  160    82    84 1
  161    85    86 1
  162    85    87 1
  163    88    89 1
  164    90    91 1
  165    92    93 1
  166    92    94 1
  167    95    96 1
  168    95    97 1
  169    98    99 1
  170    98   100 1
  171   101   102 1
  172   103   104 1
  173   105   106 1
  174   105   107 1
  175   108   109 1
  176   108   110 1
  177   111   112 1
  178   111   113 1
  179   114   115 1
  180   116   117 1
  181   118   119 1
  182   118   120 1
  183   121   122 1
  184   121   123 1
  185   124   125 1
  186   124   126 1
  187   127   128 1
  188   129   130 1
  189   131   132 1
  190   131   133 1
  191   134   135 1
  192   134   136 1
  193   137   138 1
  194   137   139 1
  195   140   141 1
  196   142   143 1
  197   144   145 1
  198   144   146 1
  199   147   148 1
  200   147   149 1
  201   150   151 1
  202   150   152 1
  203   153   154 1
  204   155   156 1
  205   157   158 1
  206   157   159 1
  207   160   161 1
  208   160   162 1
  209   163   164 1
  210   163   165 1
  211   166   167 1
  212   168   169 1
  213   170   171 1
  214   170   172 1
  215   173   174 1
  216   173   175 1
  217   176   177 1
  218   176   178 1
  219   179   180 1
  220   181   182 1
  221   183   184 1
  222   183   185 1
  223   186   187 1
  224   186   188 1
  225   189   190 1
  226   189   191 1
  227   192   193 1
  228   194   195 1
  229   196   197 1
  230   196   198 1
  231   199   200 1
  232   199   201 1
  233   202   203 1
  234   202   204 1
  235   205   206 1
  236   207   208 1
  237   209   210 1
  238   209   211 1
  239   212   213 1
  240   212   214 1
  241   215   216 1
  242   215   217 1
  243   218   219 1
  244   220   221 1
  245   222   223 1
  246   222   224 1
  247   225   226 1
  248   225   227 1
  249   228   229 1
  250   228   230 1
  251   231   232 1
  252   233   234 1
  253   235   236 1
  254   235   237 1
  255   238   239 1
  256   238   240 1
  257   241   242 1
  258   241   243 1
  259   244   245 1
  260   246   247 1
  261   248   249 1
  262   248   250 1
  263   251   252 1
  264   251   253 1
  265   254   255 1
  266   254   256 1
  267   257   258 1
  268   259   260 1
  269   261   262 1
  270   261   263 1
  271   264   265 1
  272   264   266 1
  273   267   268 1
  274   267   269 1
  275   270   271 1
  276   272   273 1
  277   274   275 1
  278   274   276 1
  279   277   278 1
  280   277   279 1
  281   280   281 1
  282   280   282 1
  283   283   284 1
  284   285   286 1
  285   287   288 1
  286   287   289 1
  287   290   291 1
  288   290   292 1
  289   293   294 1
  290   293   295 1
  291   296   297 1
  292   298   299 1
  293   300   301 1
  294   300   302 1
  295   303   304 1
  296   303   305 1
  297   306   307 1
  298   306   308 1
  299   309   310 1
  300   311   312 1
  301   313   314 1
  302   313   315 1
  303   316   317 1
  304   316   318 1
  305   319   320 1
  306   319   321 1
  307   322   323 1
  308   324   325 1
  309   326   327 1
  310   326   328 1
  311   329   330 1
  312   329   331 1
  313   332   333 1
  314   332   334 1
  315   335   336 1
  316   337   338 1
  317   339   340 1
  318   339   341 1
  319   342   343 1
  320   342   344 1
  321   345   346 1
  322   345   347 1
  323   348   349 1
  324   350   351 1
@<TRIPOS>SUBSTRUCTURE
      1 MOL               1 ****               0 ****  **** 
