@<TRIPOS>MOLECULE
MOL
   13    12     1     0     0
SMALL
abcg2


@<TRIPOS>ATOM
      1 C1           1.3980     0.5270     0.2240 c3         1 MOL       0.154600
      2 H1           2.0140     1.3530    -0.1640 h1         1 MOL       0.037450
      3 H2           1.4430     0.5770     1.3250 h1         1 MOL       0.037450
      4 C2          -0.0420     0.7030    -0.2390 c3         1 MOL      -0.120400
      5 H3          -0.0630     0.6420    -1.3360 hc         1 MOL       0.057200
      6 H4          -0.3900     1.7050     0.0360 hc         1 MOL       0.057200
      7 C3          -1.0000    -0.3360     0.3490 c3         1 MOL       0.154600
      8 H5          -0.6530    -1.3470     0.0980 h1         1 MOL       0.037450
      9 H6          -1.0080    -0.2570     1.4430 h1         1 MOL       0.037450
     10 O1           1.8670    -0.7320    -0.2510 oh         1 MOL      -0.664500
     11 H7           2.7610    -0.8680     0.0870 ho         1 MOL       0.438500
     12 O2          -2.3480    -0.1260    -0.0600 oh         1 MOL      -0.664500
     13 H8          -2.3920    -0.2990    -1.0090 ho         1 MOL       0.438500
@<TRIPOS>BOND
     1     1     2 1   
     2     1     3 1   
     3     1     4 1   
     4     1    10 1   
     5     4     5 1   
     6     4     6 1   
     7     4     7 1   
     8     7     8 1   
     9     7     9 1   
    10     7    12 1   
    11    10    11 1   
    12    12    13 1   
@<TRIPOS>SUBSTRUCTURE
     1 MOL         1 TEMP              0 ****  ****    0 ROOT
